18
	Energy:      21.7422942
C          0.00000        0.00000        0.00000
C          1.34301       -0.00914        0.38660
C         -1.01064        0.00688        0.96581
C         -0.68102        0.00464        2.33009
C          0.68102       -0.00464        2.72217
C          1.68551       -0.01148        1.74193
H          2.12065       -0.01443       -0.36625
H          2.73194       -0.01860        2.02287
H         -0.25837        0.00176       -1.05108
H         -2.04629        0.01393        0.64739
C         -1.68551        0.01148        3.31033
C         -1.34301        0.00915        4.66566
C         -0.00000        0.00000        5.05226
C          1.01064       -0.00689        4.08645
H         -2.73194        0.01861        3.02939
H         -2.12065        0.01446        5.41851
H          0.25837       -0.00176        6.10334
H          2.04629       -0.01395        4.40487
